Version 4
SHEET 1 1308 680
WIRE 240 -144 144 -144
WIRE 464 -144 368 -144
WIRE 304 0 304 -16
WIRE -640 16 -640 0
WIRE -224 16 -640 16
WIRE -640 32 -640 16
WIRE -224 48 -224 16
WIRE -96 48 -224 48
WIRE 144 48 144 -144
WIRE 144 48 32 48
WIRE 192 48 144 48
WIRE 464 80 464 -144
WIRE 464 80 416 80
WIRE 576 80 464 80
WIRE 192 208 192 112
WIRE 464 208 464 80
WIRE 464 208 320 208
WIRE 192 240 192 208
FLAG 192 368 0
FLAG 304 160 0
FLAG -688 400 0
FLAG 576 80 Vout
FLAG 304 -16 Vdd
FLAG -688 272 Vdd
FLAG -640 -128 Vdd
FLAG -640 160 0
SYMBOL cktsym\\resistor -32 48 R90
WINDOW 3 12 0 VTop 2
WINDOW 0 -12 0 VBottom 2
SYMATTR Value {wc(80600, tola, 0)}
SYMATTR InstName R1
SYMATTR SpiceLine tol=1
SYMBOL cktsym\\resistor 304 -144 R90
WINDOW 3 12 0 VTop 2
WINDOW 0 -19 -2 VBottom 2
SYMATTR Value {wc(14300, tola, 1)}
SYMATTR InstName R2
SYMATTR SpiceLine tol=1
SYMBOL cktsym\\resistor 256 208 R90
WINDOW 3 12 0 VTop 2
WINDOW 0 -12 0 VBottom 2
SYMATTR Value {wc(2000000, tola, 2)}
SYMATTR InstName R3
SYMATTR SpiceLine tol=1
SYMBOL cktsym\\capacitor 192 304 R0
SYMATTR Value {wc(0.0000001, tolb, 3)}
SYMATTR InstName C1
SYMATTR SpiceLine V=50
SYMBOL cktsym\\opamprails 288 80 R0
SYMATTR InstName U2
SYMBOL cktsym\\vsource -688 336 R0
WINDOW 123 0 0 Left 0
WINDOW 39 0 0 Left 0
SYMATTR Value 3.3
SYMATTR InstName Vdd
SYMBOL cktsym\\resistor -640 -64 R0
SYMATTR InstName R4
SYMATTR Value {wc(60.4, tola, 4)}
SYMBOL cktsym\\resistor -640 96 R0
SYMATTR InstName R5
SYMATTR Value {wc(60.4, tola, 5)}
TEXT -592 528 Left 2 !.func wc(nom,tol,index) if(run==numruns,nom,if(binary(run,index),nom*(1+tol),nom*(1-tol)))\n.func binary(run,index) floor(run/(2**index))-2*floor(run/(2**(index+1)))
TEXT -592 416 Left 2 !.step param run 0 64 1\n.param numruns=64
TEXT -592 472 Left 2 !.param tola=.01\n.param tolb=.05
TEXT -720 576 Left 2 !.tran 10 startup
